/*--------------------------------*- C++ -*----------------------------------*\
  =========                 |
  \\      /  F ield         | OpenFOAM: The Open Source CFD Toolbox
   \\    /   O peration     | Website:  https://openfoam.org
    \\  /    A nd           | Version:  6
     \\/     M anipulation  |
\*---------------------------------------------------------------------------*/

FoamFile
{
    version     2.0;
    format      ascii;
    class       dictionary;
    location    "system";
    object      controlDict;
}

// * * * * * * * * * * * * * * * * * * * * * * * * * * * * * * * * * * * * * //

  application       superDeliciousVanilla;

  libs              ("libSOWFAboundaryConditions.so" "libSOWFAincompressibleTurbulenceModels.so");

  startFrom         startTime;

  startTime         0.0; // 2013-11-08 18Z

  stopAt            endTime;

  endTime           7200.0; // 2013-11-08 20Z

  deltaT            0.1; // from WRF

  writeControl      adjustableRunTime;

  writeInterval     600.0; 

  purgeWrite        0;

  writeFormat       binary;

  writePrecision    12;

  writeCompression  uncompressed;

  timeFormat        general;

  timePrecision     12;

  runTimeModifiable yes;

//adjustTimeStep    yes;
  adjustTimeStep    no; 

  maxCo             0.75;

  maxDeltaT         25.0;

  functions
  {
    #include "sampling/tslist_probes"
    #include "sampling/sliceDataInstantaneous"
  }

// ************************************************************************* //

